OPT_V10/Two_days_MYC3/powerflow_results_t9.txt
Pandapower Network Debug Info
==================================================

BUS:
       vm_pu  va_degree      p_mw    q_mvar
0   0.995484   0.217815  0.000023  0.001078
1   0.992935   0.356139 -0.000244  0.001740
2   0.990056   0.467022  0.000938  0.002835
3   0.992596   0.332578  0.001231  0.003924
4   0.999900   0.001170  0.008093  0.008685
5   0.999887   0.001252  0.009051  0.010315
6   0.999878   0.001278  0.011596  0.009954
7   0.999940   0.000880  0.000000  0.000000
8   0.999940   0.000886  0.000000  0.000000
9   1.000000   0.000000 -0.030791 -0.043594
10  1.000000   0.000006  0.000000  0.000000
--------------------------------------------------

LINE:
   p_from_mw  q_from_mvar   p_to_mw  q_to_mvar         pl_mw       ql_mvar  i_from_ka   i_to_ka      i_ka  vm_from_pu  va_from_degree  vm_to_pu  va_to_degree  loading_percent
0   0.030781     0.039594 -0.030779  -0.039592  2.460140e-06  1.918212e-06   0.001930  0.001930  0.001930    1.000000        0.000006  0.999940      0.000880         0.839269
1   0.028742     0.028954 -0.028741  -0.028953  1.287274e-06  1.003709e-06   0.001570  0.001570  0.001570    0.999940        0.000880  0.999900      0.001170         0.682789
2   0.002026     0.009638 -0.001981  -0.009602  4.536876e-05  3.537477e-05   0.014216  0.014216  0.014216    0.999940        0.000886  0.995484      0.217815         6.180687
3  -0.020647    -0.020268  0.020648   0.020268  2.895587e-07  2.257737e-07   0.001114  0.001114  0.001114    0.999887        0.001252  0.999900      0.001170         0.484242
4  -0.011596    -0.009954  0.011596   0.009954  1.142487e-07  8.908157e-08   0.000588  0.000588  0.000588    0.999878        0.001278  0.999887      0.001252         0.255777
5  -0.000702    -0.004581  0.000715   0.004591  1.288722e-05  1.004838e-05   0.006737  0.006737  0.006737    0.992935        0.356139  0.995484      0.217815         2.928923
6  -0.001231    -0.003924  0.001243   0.003933  1.146346e-05  8.938252e-06   0.005981  0.005981  0.005981    0.992596        0.332578  0.995484      0.217815         2.600302
7  -0.000938    -0.002835  0.000946   0.002841  8.227301e-06  6.414962e-06   0.004353  0.004353  0.004353    0.990056        0.467022  0.992935      0.356139         1.892576
--------------------------------------------------

TRAFO:
    p_hv_mw  q_hv_mvar   p_lv_mw  q_lv_mvar    pl_mw  ql_mvar   i_hv_ka   i_lv_ka  vm_hv_pu  va_hv_degree  vm_lv_pu  va_lv_degree  loading_percent
0  0.002036   0.010637 -0.002026  -0.009638  0.00001    0.001  0.000417  0.014216   0.99994       0.00088   0.99994      0.000886         0.108312
1  0.030791   0.043594 -0.030781  -0.039594  0.00001    0.004  0.000440  0.001930   1.00000       0.00000   1.00000      0.000006         0.133428
--------------------------------------------------
